55

H 0 0 0
Ag 0.97082 0 0.6
Ag 0.97082 0 -0.6
Ag 0.6 0.97082 0
Ag -0.6 0.97082 0
Ag 0 0.6 0.97082
Ag 0 -0.6 0.97082
Ag 0.6 -0.97082 0
Ag 0 0.6 -0.97082
Ag -0.97082 0 0.6
Ag 0 -0.6 -0.97082
Ag -0.97082 0 -0.6
Ag -0.6 -0.97082 0
Ag 1.94164 0 1.2
Ag 1.94164 0 -1.2
Ag 1.2 1.94164 0
Ag -1.2 1.94164 0
Ag 0 1.2 1.94164
Ag 0 -1.2 1.94164
Ag 1.2 -1.94164 0
Ag 0 1.2 -1.94164
Ag -1.94164 0 1.2
Ag 0 -1.2 -1.94164
Ag -1.94164 0 -1.2
Ag -1.2 -1.94164 0
Cd 1.94164 0 0
Cd 1.57082 0.97082 0.6
Cd 0.97082 0.6 1.57082
Cd 0.97082 -0.6 1.57082
Cd 1.57082 -0.97082 0.6
Cd -1.57082 0.97082 -0.6
Cd -0.97082 0.6 -1.57082
Cd -1.94164 0 0
Cd -0.97082 -0.6 -1.57082
Cd -1.57082 -0.97082 -0.6
Cd 1.57082 0.97082 -0.6
Cd 1.57082 -0.97082 -0.6
Cd 0.97082 0.6 -1.57082
Cd 0.97082 -0.6 -1.57082
Cd -1.57082 0.97082 0.6
Cd -0.97082 0.6 1.57082
Cd -0.97082 -0.6 1.57082
Cd -1.57082 -0.97082 0.6
Cd 0 1.94164 0
Cd 0.6 1.57082 0.97082
Cd 0.6 1.57082 -0.97082
Cd -0.6 -1.57082 0.97082
Cd 0 -1.94164 0
Cd -0.6 -1.57082 -0.97082
Cd 0.6 -1.57082 0.97082
Cd 0.6 -1.57082 -0.97082
Cd -0.6 1.57082 0.97082
Cd -0.6 1.57082 -0.97082
Cd 0 0 -1.94164
Cd 0 0 1.94164
