1415

H 0 0 0
Ag 0.97082 0 0.6
Ag 0.97082 0 -0.6
Ag 0.6 0.97082 0
Ag -0.6 0.97082 0
Ag 0 0.6 0.97082
Ag 0 -0.6 0.97082
Ag 0.6 -0.97082 0
Ag 0 0.6 -0.97082
Ag -0.97082 0 0.6
Ag 0 -0.6 -0.97082
Ag -0.97082 0 -0.6
Ag -0.6 -0.97082 0
Ag 1.94164 0 1.2
Ag 1.94164 0 -1.2
Ag 1.2 1.94164 0
Ag -1.2 1.94164 0
Ag 0 1.2 1.94164
Ag 0 -1.2 1.94164
Ag 1.2 -1.94164 0
Ag 0 1.2 -1.94164
Ag -1.94164 0 1.2
Ag 0 -1.2 -1.94164
Ag -1.94164 0 -1.2
Ag -1.2 -1.94164 0
Cd 1.94164 0 0
Cd 1.57082 0.97082 0.6
Cd 0.97082 0.6 1.57082
Cd 0.97082 -0.6 1.57082
Cd 1.57082 -0.97082 0.6
Cd -1.57082 0.97082 -0.6
Cd -0.97082 0.6 -1.57082
Cd -1.94164 0 0
Cd -0.97082 -0.6 -1.57082
Cd -1.57082 -0.97082 -0.6
Cd 1.57082 0.97082 -0.6
Cd 1.57082 -0.97082 -0.6
Cd 0.97082 0.6 -1.57082
Cd 0.97082 -0.6 -1.57082
Cd -1.57082 0.97082 0.6
Cd -0.97082 0.6 1.57082
Cd -0.97082 -0.6 1.57082
Cd -1.57082 -0.97082 0.6
Cd 0 1.94164 0
Cd 0.6 1.57082 0.97082
Cd 0.6 1.57082 -0.97082
Cd -0.6 -1.57082 0.97082
Cd 0 -1.94164 0
Cd -0.6 -1.57082 -0.97082
Cd 0.6 -1.57082 0.97082
Cd 0.6 -1.57082 -0.97082
Cd -0.6 1.57082 0.97082
Cd -0.6 1.57082 -0.97082
Cd 0 0 -1.94164
Cd 0 0 1.94164
Ag 2.91246 0 1.8
Ag 2.91246 0 -1.8
Ag 1.8 2.91246 0
Ag -1.8 2.91246 0
Ag 0 1.8 2.91246
Ag 0 -1.8 2.91246
Ag 1.8 -2.91246 0
Ag 0 1.8 -2.91246
Ag -2.91246 0 1.8
Ag 0 -1.8 -2.91246
Ag -2.91246 0 -1.8
Ag -1.8 -2.91246 0
Cd 2.91246 0 0.6
Cd 2.91246 0 -0.6
Cd 2.54164 0.97082 1.2
Cd 2.17082 1.94164 0.6
Cd 1.94164 0.6 2.17082
Cd 0.97082 1.2 2.54164
Cd 1.94164 -0.6 2.17082
Cd 0.97082 -1.2 2.54164
Cd 2.54164 -0.97082 1.2
Cd 2.17082 -1.94164 0.6
Cd -2.54164 0.97082 -1.2
Cd -2.17082 1.94164 -0.6
Cd -1.94164 0.6 -2.17082
Cd -0.97082 1.2 -2.54164
Cd -2.91246 0 -0.6
Cd -2.91246 0 0.6
Cd -1.94164 -0.6 -2.17082
Cd -0.97082 -1.2 -2.54164
Cd -2.54164 -0.97082 -1.2
Cd -2.17082 -1.94164 -0.6
Cd 2.54164 0.97082 -1.2
Cd 2.17082 1.94164 -0.6
Cd 2.54164 -0.97082 -1.2
Cd 2.17082 -1.94164 -0.6
Cd 1.94164 0.6 -2.17082
Cd 0.97082 1.2 -2.54164
Cd 1.94164 -0.6 -2.17082
Cd 0.97082 -1.2 -2.54164
Cd -2.54164 0.97082 1.2
Cd -2.17082 1.94164 0.6
Cd -1.94164 0.6 2.17082
Cd -0.97082 1.2 2.54164
Cd -1.94164 -0.6 2.17082
Cd -0.97082 -1.2 2.54164
Cd -2.54164 -0.97082 1.2
Cd -2.17082 -1.94164 0.6
Cd 0.6 2.91246 0
Cd -0.6 2.91246 0
Cd 1.2 2.54164 0.97082
Cd 0.6 2.17082 1.94164
Cd 1.2 2.54164 -0.97082
Cd 0.6 2.17082 -1.94164
Cd -1.2 -2.54164 0.97082
Cd -0.6 -2.17082 1.94164
Cd -0.6 -2.91246 0
Cd 0.6 -2.91246 0
Cd -1.2 -2.54164 -0.97082
Cd -0.6 -2.17082 -1.94164
Cd 1.2 -2.54164 0.97082
Cd 0.6 -2.17082 1.94164
Cd 1.2 -2.54164 -0.97082
Cd 0.6 -2.17082 -1.94164
Cd -1.2 2.54164 0.97082
Cd -0.6 2.17082 1.94164
Cd -1.2 2.54164 -0.97082
Cd -0.6 2.17082 -1.94164
Cd 0 0.6 -2.91246
Cd 0 -0.6 -2.91246
Cd 0 -0.6 2.91246
Cd 0 0.6 2.91246
Au 2.54164 0.97082 0
Au 1.57082 1.57082 1.57082
Au 0.97082 0 2.54164
Au 1.57082 -1.57082 1.57082
Au 2.54164 -0.97082 0
Au -1.57082 1.57082 -1.57082
Au -2.54164 0.97082 0
Au -2.54164 -0.97082 0
Au -1.57082 -1.57082 -1.57082
Au -0.97082 0 -2.54164
Au 1.57082 1.57082 -1.57082
Au 0.97082 0 -2.54164
Au 1.57082 -1.57082 -1.57082
Au -1.57082 -1.57082 1.57082
Au -0.97082 0 2.54164
Au -1.57082 1.57082 1.57082
Au 0 2.54164 -0.97082
Au 0 2.54164 0.97082
Au 0 -2.54164 0.97082
Au 0 -2.54164 -0.97082
Ag 3.88328 0 2.4
Ag 3.88328 0 -2.4
Ag 2.4 3.88328 0
Ag -2.4 3.88328 0
Ag 0 2.4 3.88328
Ag 0 -2.4 3.88328
Ag 2.4 -3.88328 0
Ag 0 2.4 -3.88328
Ag -3.88328 0 2.4
Ag 0 -2.4 -3.88328
Ag -3.88328 0 -2.4
Ag -2.4 -3.88328 0
Cd 3.88328 0 1.2
Cd 3.88328 0 0
Cd 3.88328 0 -1.2
Cd 3.51246 0.97082 1.8
Cd 3.14164 1.94164 1.2
Cd 2.77082 2.91246 0.6
Cd 2.91246 0.6 2.77082
Cd 1.94164 1.2 3.14164
Cd 0.97082 1.8 3.51246
Cd 2.91246 -0.6 2.77082
Cd 1.94164 -1.2 3.14164
Cd 0.97082 -1.8 3.51246
Cd 3.51246 -0.97082 1.8
Cd 3.14164 -1.94164 1.2
Cd 2.77082 -2.91246 0.6
Cd -3.51246 0.97082 -1.8
Cd -3.14164 1.94164 -1.2
Cd -2.77082 2.91246 -0.6
Cd -2.91246 0.6 -2.77082
Cd -1.94164 1.2 -3.14164
Cd -0.97082 1.8 -3.51246
Cd -3.88328 0 -1.2
Cd -3.88328 0 0
Cd -3.88328 0 1.2
Cd -2.91246 -0.6 -2.77082
Cd -1.94164 -1.2 -3.14164
Cd -0.97082 -1.8 -3.51246
Cd -3.51246 -0.97082 -1.8
Cd -3.14164 -1.94164 -1.2
Cd -2.77082 -2.91246 -0.6
Cd 3.51246 0.97082 -1.8
Cd 3.14164 1.94164 -1.2
Cd 2.77082 2.91246 -0.6
Cd 3.51246 -0.97082 -1.8
Cd 3.14164 -1.94164 -1.2
Cd 2.77082 -2.91246 -0.6
Cd 2.91246 0.6 -2.77082
Cd 1.94164 1.2 -3.14164
Cd 0.97082 1.8 -3.51246
Cd 2.91246 -0.6 -2.77082
Cd 1.94164 -1.2 -3.14164
Cd 0.97082 -1.8 -3.51246
Cd -3.51246 0.97082 1.8
Cd -3.14164 1.94164 1.2
Cd -2.77082 2.91246 0.6
Cd -2.91246 0.6 2.77082
Cd -1.94164 1.2 3.14164
Cd -0.97082 1.8 3.51246
Cd -2.91246 -0.6 2.77082
Cd -1.94164 -1.2 3.14164
Cd -0.97082 -1.8 3.51246
Cd -3.51246 -0.97082 1.8
Cd -3.14164 -1.94164 1.2
Cd -2.77082 -2.91246 0.6
Cd 1.2 3.88328 0
Cd 0 3.88328 0
Cd -1.2 3.88328 0
Cd 1.8 3.51246 0.97082
Cd 1.2 3.14164 1.94164
Cd 0.6 2.77082 2.91246
Cd 1.8 3.51246 -0.97082
Cd 1.2 3.14164 -1.94164
Cd 0.6 2.77082 -2.91246
Cd -1.8 -3.51246 0.97082
Cd -1.2 -3.14164 1.94164
Cd -0.6 -2.77082 2.91246
Cd -1.2 -3.88328 0
Cd 0 -3.88328 0
Cd 1.2 -3.88328 0
Cd -1.8 -3.51246 -0.97082
Cd -1.2 -3.14164 -1.94164
Cd -0.6 -2.77082 -2.91246
Cd 1.8 -3.51246 0.97082
Cd 1.2 -3.14164 1.94164
Cd 0.6 -2.77082 2.91246
Cd 1.8 -3.51246 -0.97082
Cd 1.2 -3.14164 -1.94164
Cd 0.6 -2.77082 -2.91246
Cd -1.8 3.51246 0.97082
Cd -1.2 3.14164 1.94164
Cd -0.6 2.77082 2.91246
Cd -1.8 3.51246 -0.97082
Cd -1.2 3.14164 -1.94164
Cd -0.6 2.77082 -2.91246
Cd 0 1.2 -3.88328
Cd 0 0 -3.88328
Cd 0 -1.2 -3.88328
Cd 0 -1.2 3.88328
Cd 0 0 3.88328
Cd 0 1.2 3.88328
Au 3.51246 0.97082 0.6
Au 3.51246 0.97082 -0.6
Au 3.14164 1.94164 0
Au 2.54164 1.57082 2.17082
Au 2.17082 2.54164 1.57082
Au 1.57082 2.17082 2.54164
Au 1.94164 0 3.14164
Au 0.97082 0.6 3.51246
Au 0.97082 -0.6 3.51246
Au 2.54164 -1.57082 2.17082
Au 1.57082 -2.17082 2.54164
Au 2.17082 -2.54164 1.57082
Au 3.51246 -0.97082 0.6
Au 3.51246 -0.97082 -0.6
Au 3.14164 -1.94164 0
Au -2.54164 1.57082 -2.17082
Au -2.17082 2.54164 -1.57082
Au -1.57082 2.17082 -2.54164
Au -3.51246 0.97082 -0.6
Au -3.14164 1.94164 0
Au -3.51246 0.97082 0.6
Au -3.51246 -0.97082 -0.6
Au -3.51246 -0.97082 0.6
Au -3.14164 -1.94164 0
Au -2.54164 -1.57082 -2.17082
Au -1.57082 -2.17082 -2.54164
Au -2.17082 -2.54164 -1.57082
Au -1.94164 0 -3.14164
Au -0.97082 0.6 -3.51246
Au -0.97082 -0.6 -3.51246
Au 2.54164 1.57082 -2.17082
Au 2.17082 2.54164 -1.57082
Au 1.57082 2.17082 -2.54164
Au 1.94164 0 -3.14164
Au 0.97082 0.6 -3.51246
Au 0.97082 -0.6 -3.51246
Au 2.54164 -1.57082 -2.17082
Au 2.17082 -2.54164 -1.57082
Au 1.57082 -2.17082 -2.54164
Au -2.54164 -1.57082 2.17082
Au -1.57082 -2.17082 2.54164
Au -2.17082 -2.54164 1.57082
Au -1.94164 0 3.14164
Au -0.97082 0.6 3.51246
Au -0.97082 -0.6 3.51246
Au -2.54164 1.57082 2.17082
Au -2.17082 2.54164 1.57082
Au -1.57082 2.17082 2.54164
Au 0.6 3.51246 -0.97082
Au -0.6 3.51246 -0.97082
Au 0 3.14164 -1.94164
Au 0.6 3.51246 0.97082
Au -0.6 3.51246 0.97082
Au 0 3.14164 1.94164
Au -0.6 -3.51246 0.97082
Au 0 -3.14164 1.94164
Au 0.6 -3.51246 0.97082
Au -0.6 -3.51246 -0.97082
Au 0.6 -3.51246 -0.97082
Au 0 -3.14164 -1.94164
Ag 4.8541 0 3
Ag 4.8541 0 -3
Ag 3 4.8541 0
Ag -3 4.8541 0
Ag 0 3 4.8541
Ag 0 -3 4.8541
Ag 3 -4.8541 0
Ag 0 3 -4.8541
Ag -4.8541 0 3
Ag 0 -3 -4.8541
Ag -4.8541 0 -3
Ag -3 -4.8541 0
Cd 4.8541 0 1.8
Cd 4.8541 0 0.6
Cd 4.8541 0 -0.6
Cd 4.8541 0 -1.8
Cd 4.48328 0.97082 2.4
Cd 4.11246 1.94164 1.8
Cd 3.74164 2.91246 1.2
Cd 3.37082 3.88328 0.6
Cd 3.88328 0.6 3.37082
Cd 2.91246 1.2 3.74164
Cd 1.94164 1.8 4.11246
Cd 0.97082 2.4 4.48328
Cd 3.88328 -0.6 3.37082
Cd 2.91246 -1.2 3.74164
Cd 1.94164 -1.8 4.11246
Cd 0.97082 -2.4 4.48328
Cd 4.48328 -0.97082 2.4
Cd 4.11246 -1.94164 1.8
Cd 3.74164 -2.91246 1.2
Cd 3.37082 -3.88328 0.6
Cd -4.48328 0.97082 -2.4
Cd -4.11246 1.94164 -1.8
Cd -3.74164 2.91246 -1.2
Cd -3.37082 3.88328 -0.6
Cd -3.88328 0.6 -3.37082
Cd -2.91246 1.2 -3.74164
Cd -1.94164 1.8 -4.11246
Cd -0.97082 2.4 -4.48328
Cd -4.8541 0 -1.8
Cd -4.8541 0 -0.6
Cd -4.8541 0 0.6
Cd -4.8541 0 1.8
Cd -3.88328 -0.6 -3.37082
Cd -2.91246 -1.2 -3.74164
Cd -1.94164 -1.8 -4.11246
Cd -0.97082 -2.4 -4.48328
Cd -4.48328 -0.97082 -2.4
Cd -4.11246 -1.94164 -1.8
Cd -3.74164 -2.91246 -1.2
Cd -3.37082 -3.88328 -0.6
Cd 4.48328 0.97082 -2.4
Cd 4.11246 1.94164 -1.8
Cd 3.74164 2.91246 -1.2
Cd 3.37082 3.88328 -0.6
Cd 4.48328 -0.97082 -2.4
Cd 4.11246 -1.94164 -1.8
Cd 3.74164 -2.91246 -1.2
Cd 3.37082 -3.88328 -0.6
Cd 3.88328 0.6 -3.37082
Cd 2.91246 1.2 -3.74164
Cd 1.94164 1.8 -4.11246
Cd 0.97082 2.4 -4.48328
Cd 3.88328 -0.6 -3.37082
Cd 2.91246 -1.2 -3.74164
Cd 1.94164 -1.8 -4.11246
Cd 0.97082 -2.4 -4.48328
Cd -4.48328 0.97082 2.4
Cd -4.11246 1.94164 1.8
Cd -3.74164 2.91246 1.2
Cd -3.37082 3.88328 0.6
Cd -3.88328 0.6 3.37082
Cd -2.91246 1.2 3.74164
Cd -1.94164 1.8 4.11246
Cd -0.97082 2.4 4.48328
Cd -3.88328 -0.6 3.37082
Cd -2.91246 -1.2 3.74164
Cd -1.94164 -1.8 4.11246
Cd -0.97082 -2.4 4.48328
Cd -4.48328 -0.97082 2.4
Cd -4.11246 -1.94164 1.8
Cd -3.74164 -2.91246 1.2
Cd -3.37082 -3.88328 0.6
Cd 1.8 4.8541 0
Cd 0.6 4.8541 0
Cd -0.6 4.8541 0
Cd -1.8 4.8541 0
Cd 2.4 4.48328 0.97082
Cd 1.8 4.11246 1.94164
Cd 1.2 3.74164 2.91246
Cd 0.6 3.37082 3.88328
Cd 2.4 4.48328 -0.97082
Cd 1.8 4.11246 -1.94164
Cd 1.2 3.74164 -2.91246
Cd 0.6 3.37082 -3.88328
Cd -2.4 -4.48328 0.97082
Cd -1.8 -4.11246 1.94164
Cd -1.2 -3.74164 2.91246
Cd -0.6 -3.37082 3.88328
Cd -1.8 -4.8541 0
Cd -0.6 -4.8541 0
Cd 0.6 -4.8541 0
Cd 1.8 -4.8541 0
Cd -2.4 -4.48328 -0.97082
Cd -1.8 -4.11246 -1.94164
Cd -1.2 -3.74164 -2.91246
Cd -0.6 -3.37082 -3.88328
Cd 2.4 -4.48328 0.97082
Cd 1.8 -4.11246 1.94164
Cd 1.2 -3.74164 2.91246
Cd 0.6 -3.37082 3.88328
Cd 2.4 -4.48328 -0.97082
Cd 1.8 -4.11246 -1.94164
Cd 1.2 -3.74164 -2.91246
Cd 0.6 -3.37082 -3.88328
Cd -2.4 4.48328 0.97082
Cd -1.8 4.11246 1.94164
Cd -1.2 3.74164 2.91246
Cd -0.6 3.37082 3.88328
Cd -2.4 4.48328 -0.97082
Cd -1.8 4.11246 -1.94164
Cd -1.2 3.74164 -2.91246
Cd -0.6 3.37082 -3.88328
Cd 0 1.8 -4.8541
Cd 0 0.6 -4.8541
Cd 0 -0.6 -4.8541
Cd 0 -1.8 -4.8541
Cd 0 -1.8 4.8541
Cd 0 -0.6 4.8541
Cd 0 0.6 4.8541
Cd 0 1.8 4.8541
Au 4.48328 0.97082 1.2
Au 4.48328 0.97082 0
Au 4.11246 1.94164 0.6
Au 4.48328 0.97082 -1.2
Au 4.11246 1.94164 -0.6
Au 3.74164 2.91246 0
Au 3.51246 1.57082 2.77082
Au 3.14164 2.54164 2.17082
Au 2.54164 2.17082 3.14164
Au 2.77082 3.51246 1.57082
Au 2.17082 3.14164 2.54164
Au 1.57082 2.77082 3.51246
Au 2.91246 0 3.74164
Au 1.94164 0.6 4.11246
Au 1.94164 -0.6 4.11246
Au 0.97082 1.2 4.48328
Au 0.97082 0 4.48328
Au 0.97082 -1.2 4.48328
Au 3.51246 -1.57082 2.77082
Au 2.54164 -2.17082 3.14164
Au 3.14164 -2.54164 2.17082
Au 1.57082 -2.77082 3.51246
Au 2.17082 -3.14164 2.54164
Au 2.77082 -3.51246 1.57082
Au 4.48328 -0.97082 1.2
Au 4.48328 -0.97082 0
Au 4.11246 -1.94164 0.6
Au 4.48328 -0.97082 -1.2
Au 4.11246 -1.94164 -0.6
Au 3.74164 -2.91246 0
Au -3.51246 1.57082 -2.77082
Au -3.14164 2.54164 -2.17082
Au -2.54164 2.17082 -3.14164
Au -2.77082 3.51246 -1.57082
Au -2.17082 3.14164 -2.54164
Au -1.57082 2.77082 -3.51246
Au -4.48328 0.97082 -1.2
Au -4.11246 1.94164 -0.6
Au -4.48328 0.97082 0
Au -3.74164 2.91246 0
Au -4.11246 1.94164 0.6
Au -4.48328 0.97082 1.2
Au -4.48328 -0.97082 -1.2
Au -4.48328 -0.97082 0
Au -4.11246 -1.94164 -0.6
Au -4.48328 -0.97082 1.2
Au -4.11246 -1.94164 0.6
Au -3.74164 -2.91246 0
Au -3.51246 -1.57082 -2.77082
Au -2.54164 -2.17082 -3.14164
Au -3.14164 -2.54164 -2.17082
Au -1.57082 -2.77082 -3.51246
Au -2.17082 -3.14164 -2.54164
Au -2.77082 -3.51246 -1.57082
Au -2.91246 0 -3.74164
Au -1.94164 0.6 -4.11246
Au -1.94164 -0.6 -4.11246
Au -0.97082 1.2 -4.48328
Au -0.97082 0 -4.48328
Au -0.97082 -1.2 -4.48328
Au 3.51246 1.57082 -2.77082
Au 3.14164 2.54164 -2.17082
Au 2.54164 2.17082 -3.14164
Au 2.77082 3.51246 -1.57082
Au 2.17082 3.14164 -2.54164
Au 1.57082 2.77082 -3.51246
Au 2.91246 0 -3.74164
Au 1.94164 0.6 -4.11246
Au 1.94164 -0.6 -4.11246
Au 0.97082 1.2 -4.48328
Au 0.97082 0 -4.48328
Au 0.97082 -1.2 -4.48328
Au 3.51246 -1.57082 -2.77082
Au 3.14164 -2.54164 -2.17082
Au 2.54164 -2.17082 -3.14164
Au 2.77082 -3.51246 -1.57082
Au 2.17082 -3.14164 -2.54164
Au 1.57082 -2.77082 -3.51246
Au -3.51246 -1.57082 2.77082
Au -2.54164 -2.17082 3.14164
Au -3.14164 -2.54164 2.17082
Au -1.57082 -2.77082 3.51246
Au -2.17082 -3.14164 2.54164
Au -2.77082 -3.51246 1.57082
Au -2.91246 0 3.74164
Au -1.94164 0.6 4.11246
Au -1.94164 -0.6 4.11246
Au -0.97082 1.2 4.48328
Au -0.97082 0 4.48328
Au -0.97082 -1.2 4.48328
Au -3.51246 1.57082 2.77082
Au -3.14164 2.54164 2.17082
Au -2.54164 2.17082 3.14164
Au -2.77082 3.51246 1.57082
Au -2.17082 3.14164 2.54164
Au -1.57082 2.77082 3.51246
Au 1.2 4.48328 -0.97082
Au 0 4.48328 -0.97082
Au 0.6 4.11246 -1.94164
Au -1.2 4.48328 -0.97082
Au -0.6 4.11246 -1.94164
Au 0 3.74164 -2.91246
Au 1.2 4.48328 0.97082
Au 0 4.48328 0.97082
Au 0.6 4.11246 1.94164
Au -1.2 4.48328 0.97082
Au -0.6 4.11246 1.94164
Au 0 3.74164 2.91246
Au -1.2 -4.48328 0.97082
Au -0.6 -4.11246 1.94164
Au 0 -4.48328 0.97082
Au 0 -3.74164 2.91246
Au 0.6 -4.11246 1.94164
Au 1.2 -4.48328 0.97082
Au -1.2 -4.48328 -0.97082
Au 0 -4.48328 -0.97082
Au -0.6 -4.11246 -1.94164
Au 1.2 -4.48328 -0.97082
Au 0.6 -4.11246 -1.94164
Au 0 -3.74164 -2.91246
Ag 5.82492 0 3.6
Ag 5.82492 0 -3.6
Ag 3.6 5.82492 0
Ag -3.6 5.82492 0
Ag 0 3.6 5.82492
Ag 0 -3.6 5.82492
Ag 3.6 -5.82492 0
Ag 0 3.6 -5.82492
Ag -5.82492 0 3.6
Ag 0 -3.6 -5.82492
Ag -5.82492 0 -3.6
Ag -3.6 -5.82492 0
Cd 5.82492 0 2.4
Cd 5.82492 0 1.2
Cd 5.82492 0 0
Cd 5.82492 0 -1.2
Cd 5.82492 0 -2.4
Cd 5.4541 0.97082 3
Cd 5.08328 1.94164 2.4
Cd 4.71246 2.91246 1.8
Cd 4.34164 3.88328 1.2
Cd 3.97082 4.8541 0.6
Cd 4.8541 0.6 3.97082
Cd 3.88328 1.2 4.34164
Cd 2.91246 1.8 4.71246
Cd 1.94164 2.4 5.08328
Cd 0.97082 3 5.4541
Cd 4.8541 -0.6 3.97082
Cd 3.88328 -1.2 4.34164
Cd 2.91246 -1.8 4.71246
Cd 1.94164 -2.4 5.08328
Cd 0.97082 -3 5.4541
Cd 5.4541 -0.97082 3
Cd 5.08328 -1.94164 2.4
Cd 4.71246 -2.91246 1.8
Cd 4.34164 -3.88328 1.2
Cd 3.97082 -4.8541 0.6
Cd -5.4541 0.97082 -3
Cd -5.08328 1.94164 -2.4
Cd -4.71246 2.91246 -1.8
Cd -4.34164 3.88328 -1.2
Cd -3.97082 4.8541 -0.6
Cd -4.8541 0.6 -3.97082
Cd -3.88328 1.2 -4.34164
Cd -2.91246 1.8 -4.71246
Cd -1.94164 2.4 -5.08328
Cd -0.97082 3 -5.4541
Cd -5.82492 0 -2.4
Cd -5.82492 0 -1.2
Cd -5.82492 0 0
Cd -5.82492 0 1.2
Cd -5.82492 0 2.4
Cd -4.8541 -0.6 -3.97082
Cd -3.88328 -1.2 -4.34164
Cd -2.91246 -1.8 -4.71246
Cd -1.94164 -2.4 -5.08328
Cd -0.97082 -3 -5.4541
Cd -5.4541 -0.97082 -3
Cd -5.08328 -1.94164 -2.4
Cd -4.71246 -2.91246 -1.8
Cd -4.34164 -3.88328 -1.2
Cd -3.97082 -4.8541 -0.6
Cd 5.4541 0.97082 -3
Cd 5.08328 1.94164 -2.4
Cd 4.71246 2.91246 -1.8
Cd 4.34164 3.88328 -1.2
Cd 3.97082 4.8541 -0.6
Cd 5.4541 -0.97082 -3
Cd 5.08328 -1.94164 -2.4
Cd 4.71246 -2.91246 -1.8
Cd 4.34164 -3.88328 -1.2
Cd 3.97082 -4.8541 -0.6
Cd 4.8541 0.6 -3.97082
Cd 3.88328 1.2 -4.34164
Cd 2.91246 1.8 -4.71246
Cd 1.94164 2.4 -5.08328
Cd 0.97082 3 -5.4541
Cd 4.8541 -0.6 -3.97082
Cd 3.88328 -1.2 -4.34164
Cd 2.91246 -1.8 -4.71246
Cd 1.94164 -2.4 -5.08328
Cd 0.97082 -3 -5.4541
Cd -5.4541 0.97082 3
Cd -5.08328 1.94164 2.4
Cd -4.71246 2.91246 1.8
Cd -4.34164 3.88328 1.2
Cd -3.97082 4.8541 0.6
Cd -4.8541 0.6 3.97082
Cd -3.88328 1.2 4.34164
Cd -2.91246 1.8 4.71246
Cd -1.94164 2.4 5.08328
Cd -0.97082 3 5.4541
Cd -4.8541 -0.6 3.97082
Cd -3.88328 -1.2 4.34164
Cd -2.91246 -1.8 4.71246
Cd -1.94164 -2.4 5.08328
Cd -0.97082 -3 5.4541
Cd -5.4541 -0.97082 3
Cd -5.08328 -1.94164 2.4
Cd -4.71246 -2.91246 1.8
Cd -4.34164 -3.88328 1.2
Cd -3.97082 -4.8541 0.6
Cd 2.4 5.82492 0
Cd 1.2 5.82492 0
Cd 0 5.82492 0
Cd -1.2 5.82492 0
Cd -2.4 5.82492 0
Cd 3 5.4541 0.97082
Cd 2.4 5.08328 1.94164
Cd 1.8 4.71246 2.91246
Cd 1.2 4.34164 3.88328
Cd 0.6 3.97082 4.8541
Cd 3 5.4541 -0.97082
Cd 2.4 5.08328 -1.94164
Cd 1.8 4.71246 -2.91246
Cd 1.2 4.34164 -3.88328
Cd 0.6 3.97082 -4.8541
Cd -3 -5.4541 0.97082
Cd -2.4 -5.08328 1.94164
Cd -1.8 -4.71246 2.91246
Cd -1.2 -4.34164 3.88328
Cd -0.6 -3.97082 4.8541
Cd -2.4 -5.82492 0
Cd -1.2 -5.82492 0
Cd 0 -5.82492 0
Cd 1.2 -5.82492 0
Cd 2.4 -5.82492 0
Cd -3 -5.4541 -0.97082
Cd -2.4 -5.08328 -1.94164
Cd -1.8 -4.71246 -2.91246
Cd -1.2 -4.34164 -3.88328
Cd -0.6 -3.97082 -4.8541
Cd 3 -5.4541 0.97082
Cd 2.4 -5.08328 1.94164
Cd 1.8 -4.71246 2.91246
Cd 1.2 -4.34164 3.88328
Cd 0.6 -3.97082 4.8541
Cd 3 -5.4541 -0.97082
Cd 2.4 -5.08328 -1.94164
Cd 1.8 -4.71246 -2.91246
Cd 1.2 -4.34164 -3.88328
Cd 0.6 -3.97082 -4.8541
Cd -3 5.4541 0.97082
Cd -2.4 5.08328 1.94164
Cd -1.8 4.71246 2.91246
Cd -1.2 4.34164 3.88328
Cd -0.6 3.97082 4.8541
Cd -3 5.4541 -0.97082
Cd -2.4 5.08328 -1.94164
Cd -1.8 4.71246 -2.91246
Cd -1.2 4.34164 -3.88328
Cd -0.6 3.97082 -4.8541
Cd 0 2.4 -5.82492
Cd 0 1.2 -5.82492
Cd 0 0 -5.82492
Cd 0 -1.2 -5.82492
Cd 0 -2.4 -5.82492
Cd 0 -2.4 5.82492
Cd 0 -1.2 5.82492
Cd 0 0 5.82492
Cd 0 1.2 5.82492
Cd 0 2.4 5.82492
Au 5.4541 0.97082 1.8
Au 5.4541 0.97082 0.6
Au 5.08328 1.94164 1.2
Au 5.4541 0.97082 -0.6
Au 5.08328 1.94164 0
Au 4.71246 2.91246 0.6
Au 5.4541 0.97082 -1.8
Au 5.08328 1.94164 -1.2
Au 4.71246 2.91246 -0.6
Au 4.34164 3.88328 0
Au 4.48328 1.57082 3.37082
Au 4.11246 2.54164 2.77082
Au 3.51246 2.17082 3.74164
Au 3.74164 3.51246 2.17082
Au 3.14164 3.14164 3.14164
Au 2.54164 2.77082 4.11246
Au 3.37082 4.48328 1.57082
Au 2.77082 4.11246 2.54164
Au 2.17082 3.74164 3.51246
Au 1.57082 3.37082 4.48328
Au 3.88328 0 4.34164
Au 2.91246 0.6 4.71246
Au 2.91246 -0.6 4.71246
Au 1.94164 1.2 5.08328
Au 1.94164 0 5.08328
Au 1.94164 -1.2 5.08328
Au 0.97082 1.8 5.4541
Au 0.97082 0.6 5.4541
Au 0.97082 -0.6 5.4541
Au 0.97082 -1.8 5.4541
Au 4.48328 -1.57082 3.37082
Au 3.51246 -2.17082 3.74164
Au 4.11246 -2.54164 2.77082
Au 2.54164 -2.77082 4.11246
Au 3.14164 -3.14164 3.14164
Au 3.74164 -3.51246 2.17082
Au 1.57082 -3.37082 4.48328
Au 2.17082 -3.74164 3.51246
Au 2.77082 -4.11246 2.54164
Au 3.37082 -4.48328 1.57082
Au 5.4541 -0.97082 1.8
Au 5.4541 -0.97082 0.6
Au 5.08328 -1.94164 1.2
Au 5.4541 -0.97082 -0.6
Au 5.08328 -1.94164 0
Au 4.71246 -2.91246 0.6
Au 5.4541 -0.97082 -1.8
Au 5.08328 -1.94164 -1.2
Au 4.71246 -2.91246 -0.6
Au 4.34164 -3.88328 0
Au -4.48328 1.57082 -3.37082
Au -4.11246 2.54164 -2.77082
Au -3.51246 2.17082 -3.74164
Au -3.74164 3.51246 -2.17082
Au -3.14164 3.14164 -3.14164
Au -2.54164 2.77082 -4.11246
Au -3.37082 4.48328 -1.57082
Au -2.77082 4.11246 -2.54164
Au -2.17082 3.74164 -3.51246
Au -1.57082 3.37082 -4.48328
Au -5.4541 0.97082 -1.8
Au -5.08328 1.94164 -1.2
Au -5.4541 0.97082 -0.6
Au -4.71246 2.91246 -0.6
Au -5.08328 1.94164 0
Au -5.4541 0.97082 0.6
Au -4.34164 3.88328 0
Au -4.71246 2.91246 0.6
Au -5.08328 1.94164 1.2
Au -5.4541 0.97082 1.8
Au -5.4541 -0.97082 -1.8
Au -5.4541 -0.97082 -0.6
Au -5.08328 -1.94164 -1.2
Au -5.4541 -0.97082 0.6
Au -5.08328 -1.94164 0
Au -4.71246 -2.91246 -0.6
Au -5.4541 -0.97082 1.8
Au -5.08328 -1.94164 1.2
Au -4.71246 -2.91246 0.6
Au -4.34164 -3.88328 0
Au -4.48328 -1.57082 -3.37082
Au -3.51246 -2.17082 -3.74164
Au -4.11246 -2.54164 -2.77082
Au -2.54164 -2.77082 -4.11246
Au -3.14164 -3.14164 -3.14164
Au -3.74164 -3.51246 -2.17082
Au -1.57082 -3.37082 -4.48328
Au -2.17082 -3.74164 -3.51246
Au -2.77082 -4.11246 -2.54164
Au -3.37082 -4.48328 -1.57082
Au -3.88328 0 -4.34164
Au -2.91246 0.6 -4.71246
Au -2.91246 -0.6 -4.71246
Au -1.94164 1.2 -5.08328
Au -1.94164 0 -5.08328
Au -1.94164 -1.2 -5.08328
Au -0.97082 1.8 -5.4541
Au -0.97082 0.6 -5.4541
Au -0.97082 -0.6 -5.4541
Au -0.97082 -1.8 -5.4541
Au 4.48328 1.57082 -3.37082
Au 4.11246 2.54164 -2.77082
Au 3.51246 2.17082 -3.74164
Au 3.74164 3.51246 -2.17082
Au 3.14164 3.14164 -3.14164
Au 2.54164 2.77082 -4.11246
Au 3.37082 4.48328 -1.57082
Au 2.77082 4.11246 -2.54164
Au 2.17082 3.74164 -3.51246
Au 1.57082 3.37082 -4.48328
Au 3.88328 0 -4.34164
Au 2.91246 0.6 -4.71246
Au 2.91246 -0.6 -4.71246
Au 1.94164 1.2 -5.08328
Au 1.94164 0 -5.08328
Au 1.94164 -1.2 -5.08328
Au 0.97082 1.8 -5.4541
Au 0.97082 0.6 -5.4541
Au 0.97082 -0.6 -5.4541
Au 0.97082 -1.8 -5.4541
Au 4.48328 -1.57082 -3.37082
Au 4.11246 -2.54164 -2.77082
Au 3.51246 -2.17082 -3.74164
Au 3.74164 -3.51246 -2.17082
Au 3.14164 -3.14164 -3.14164
Au 2.54164 -2.77082 -4.11246
Au 3.37082 -4.48328 -1.57082
Au 2.77082 -4.11246 -2.54164
Au 2.17082 -3.74164 -3.51246
Au 1.57082 -3.37082 -4.48328
Au -4.48328 -1.57082 3.37082
Au -3.51246 -2.17082 3.74164
Au -4.11246 -2.54164 2.77082
Au -2.54164 -2.77082 4.11246
Au -3.14164 -3.14164 3.14164
Au -3.74164 -3.51246 2.17082
Au -1.57082 -3.37082 4.48328
Au -2.17082 -3.74164 3.51246
Au -2.77082 -4.11246 2.54164
Au -3.37082 -4.48328 1.57082
Au -3.88328 0 4.34164
Au -2.91246 0.6 4.71246
Au -2.91246 -0.6 4.71246
Au -1.94164 1.2 5.08328
Au -1.94164 0 5.08328
Au -1.94164 -1.2 5.08328
Au -0.97082 1.8 5.4541
Au -0.97082 0.6 5.4541
Au -0.97082 -0.6 5.4541
Au -0.97082 -1.8 5.4541
Au -4.48328 1.57082 3.37082
Au -4.11246 2.54164 2.77082
Au -3.51246 2.17082 3.74164
Au -3.74164 3.51246 2.17082
Au -3.14164 3.14164 3.14164
Au -2.54164 2.77082 4.11246
Au -3.37082 4.48328 1.57082
Au -2.77082 4.11246 2.54164
Au -2.17082 3.74164 3.51246
Au -1.57082 3.37082 4.48328
Au 1.8 5.4541 -0.97082
Au 0.6 5.4541 -0.97082
Au 1.2 5.08328 -1.94164
Au -0.6 5.4541 -0.97082
Au 0 5.08328 -1.94164
Au 0.6 4.71246 -2.91246
Au -1.8 5.4541 -0.97082
Au -1.2 5.08328 -1.94164
Au -0.6 4.71246 -2.91246
Au 0 4.34164 -3.88328
Au 1.8 5.4541 0.97082
Au 0.6 5.4541 0.97082
Au 1.2 5.08328 1.94164
Au -0.6 5.4541 0.97082
Au 0 5.08328 1.94164
Au 0.6 4.71246 2.91246
Au -1.8 5.4541 0.97082
Au -1.2 5.08328 1.94164
Au -0.6 4.71246 2.91246
Au 0 4.34164 3.88328
Au -1.8 -5.4541 0.97082
Au -1.2 -5.08328 1.94164
Au -0.6 -5.4541 0.97082
Au -0.6 -4.71246 2.91246
Au 0 -5.08328 1.94164
Au 0.6 -5.4541 0.97082
Au 0 -4.34164 3.88328
Au 0.6 -4.71246 2.91246
Au 1.2 -5.08328 1.94164
Au 1.8 -5.4541 0.97082
Au -1.8 -5.4541 -0.97082
Au -0.6 -5.4541 -0.97082
Au -1.2 -5.08328 -1.94164
Au 0.6 -5.4541 -0.97082
Au 0 -5.08328 -1.94164
Au -0.6 -4.71246 -2.91246
Au 1.8 -5.4541 -0.97082
Au 1.2 -5.08328 -1.94164
Au 0.6 -4.71246 -2.91246
Au 0 -4.34164 -3.88328
Ag 6.79574 0 4.2
Ag 6.79574 0 -4.2
Ag 4.2 6.79574 0
Ag -4.2 6.79574 0
Ag 0 4.2 6.79574
Ag 0 -4.2 6.79574
Ag 4.2 -6.79574 0
Ag 0 4.2 -6.79574
Ag -6.79574 0 4.2
Ag 0 -4.2 -6.79574
Ag -6.79574 0 -4.2
Ag -4.2 -6.79574 0
Cd 6.79574 0 3
Cd 6.79574 0 1.8
Cd 6.79574 0 0.6
Cd 6.79574 0 -0.6
Cd 6.79574 0 -1.8
Cd 6.79574 0 -3
Cd 6.42492 0.97082 3.6
Cd 6.0541 1.94164 3
Cd 5.68328 2.91246 2.4
Cd 5.31246 3.88328 1.8
Cd 4.94164 4.8541 1.2
Cd 4.57082 5.82492 0.6
Cd 5.82492 0.6 4.57082
Cd 4.8541 1.2 4.94164
Cd 3.88328 1.8 5.31246
Cd 2.91246 2.4 5.68328
Cd 1.94164 3 6.0541
Cd 0.97082 3.6 6.42492
Cd 5.82492 -0.6 4.57082
Cd 4.8541 -1.2 4.94164
Cd 3.88328 -1.8 5.31246
Cd 2.91246 -2.4 5.68328
Cd 1.94164 -3 6.0541
Cd 0.97082 -3.6 6.42492
Cd 6.42492 -0.97082 3.6
Cd 6.0541 -1.94164 3
Cd 5.68328 -2.91246 2.4
Cd 5.31246 -3.88328 1.8
Cd 4.94164 -4.8541 1.2
Cd 4.57082 -5.82492 0.6
Cd -6.42492 0.97082 -3.6
Cd -6.0541 1.94164 -3
Cd -5.68328 2.91246 -2.4
Cd -5.31246 3.88328 -1.8
Cd -4.94164 4.8541 -1.2
Cd -4.57082 5.82492 -0.6
Cd -5.82492 0.6 -4.57082
Cd -4.8541 1.2 -4.94164
Cd -3.88328 1.8 -5.31246
Cd -2.91246 2.4 -5.68328
Cd -1.94164 3 -6.0541
Cd -0.97082 3.6 -6.42492
Cd -6.79574 0 -3
Cd -6.79574 0 -1.8
Cd -6.79574 0 -0.6
Cd -6.79574 0 0.6
Cd -6.79574 0 1.8
Cd -6.79574 0 3
Cd -5.82492 -0.6 -4.57082
Cd -4.8541 -1.2 -4.94164
Cd -3.88328 -1.8 -5.31246
Cd -2.91246 -2.4 -5.68328
Cd -1.94164 -3 -6.0541
Cd -0.97082 -3.6 -6.42492
Cd -6.42492 -0.97082 -3.6
Cd -6.0541 -1.94164 -3
Cd -5.68328 -2.91246 -2.4
Cd -5.31246 -3.88328 -1.8
Cd -4.94164 -4.8541 -1.2
Cd -4.57082 -5.82492 -0.6
Cd 6.42492 0.97082 -3.6
Cd 6.0541 1.94164 -3
Cd 5.68328 2.91246 -2.4
Cd 5.31246 3.88328 -1.8
Cd 4.94164 4.8541 -1.2
Cd 4.57082 5.82492 -0.6
Cd 6.42492 -0.97082 -3.6
Cd 6.0541 -1.94164 -3
Cd 5.68328 -2.91246 -2.4
Cd 5.31246 -3.88328 -1.8
Cd 4.94164 -4.8541 -1.2
Cd 4.57082 -5.82492 -0.6
Cd 5.82492 0.6 -4.57082
Cd 4.8541 1.2 -4.94164
Cd 3.88328 1.8 -5.31246
Cd 2.91246 2.4 -5.68328
Cd 1.94164 3 -6.0541
Cd 0.97082 3.6 -6.42492
Cd 5.82492 -0.6 -4.57082
Cd 4.8541 -1.2 -4.94164
Cd 3.88328 -1.8 -5.31246
Cd 2.91246 -2.4 -5.68328
Cd 1.94164 -3 -6.0541
Cd 0.97082 -3.6 -6.42492
Cd -6.42492 0.97082 3.6
Cd -6.0541 1.94164 3
Cd -5.68328 2.91246 2.4
Cd -5.31246 3.88328 1.8
Cd -4.94164 4.8541 1.2
Cd -4.57082 5.82492 0.6
Cd -5.82492 0.6 4.57082
Cd -4.8541 1.2 4.94164
Cd -3.88328 1.8 5.31246
Cd -2.91246 2.4 5.68328
Cd -1.94164 3 6.0541
Cd -0.97082 3.6 6.42492
Cd -5.82492 -0.6 4.57082
Cd -4.8541 -1.2 4.94164
Cd -3.88328 -1.8 5.31246
Cd -2.91246 -2.4 5.68328
Cd -1.94164 -3 6.0541
Cd -0.97082 -3.6 6.42492
Cd -6.42492 -0.97082 3.6
Cd -6.0541 -1.94164 3
Cd -5.68328 -2.91246 2.4
Cd -5.31246 -3.88328 1.8
Cd -4.94164 -4.8541 1.2
Cd -4.57082 -5.82492 0.6
Cd 3 6.79574 0
Cd 1.8 6.79574 0
Cd 0.6 6.79574 0
Cd -0.6 6.79574 0
Cd -1.8 6.79574 0
Cd -3 6.79574 0
Cd 3.6 6.42492 0.97082
Cd 3 6.0541 1.94164
Cd 2.4 5.68328 2.91246
Cd 1.8 5.31246 3.88328
Cd 1.2 4.94164 4.8541
Cd 0.6 4.57082 5.82492
Cd 3.6 6.42492 -0.97082
Cd 3 6.0541 -1.94164
Cd 2.4 5.68328 -2.91246
Cd 1.8 5.31246 -3.88328
Cd 1.2 4.94164 -4.8541
Cd 0.6 4.57082 -5.82492
Cd -3.6 -6.42492 0.97082
Cd -3 -6.0541 1.94164
Cd -2.4 -5.68328 2.91246
Cd -1.8 -5.31246 3.88328
Cd -1.2 -4.94164 4.8541
Cd -0.6 -4.57082 5.82492
Cd -3 -6.79574 0
Cd -1.8 -6.79574 0
Cd -0.6 -6.79574 0
Cd 0.6 -6.79574 0
Cd 1.8 -6.79574 0
Cd 3 -6.79574 0
Cd -3.6 -6.42492 -0.97082
Cd -3 -6.0541 -1.94164
Cd -2.4 -5.68328 -2.91246
Cd -1.8 -5.31246 -3.88328
Cd -1.2 -4.94164 -4.8541
Cd -0.6 -4.57082 -5.82492
Cd 3.6 -6.42492 0.97082
Cd 3 -6.0541 1.94164
Cd 2.4 -5.68328 2.91246
Cd 1.8 -5.31246 3.88328
Cd 1.2 -4.94164 4.8541
Cd 0.6 -4.57082 5.82492
Cd 3.6 -6.42492 -0.97082
Cd 3 -6.0541 -1.94164
Cd 2.4 -5.68328 -2.91246
Cd 1.8 -5.31246 -3.88328
Cd 1.2 -4.94164 -4.8541
Cd 0.6 -4.57082 -5.82492
Cd -3.6 6.42492 0.97082
Cd -3 6.0541 1.94164
Cd -2.4 5.68328 2.91246
Cd -1.8 5.31246 3.88328
Cd -1.2 4.94164 4.8541
Cd -0.6 4.57082 5.82492
Cd -3.6 6.42492 -0.97082
Cd -3 6.0541 -1.94164
Cd -2.4 5.68328 -2.91246
Cd -1.8 5.31246 -3.88328
Cd -1.2 4.94164 -4.8541
Cd -0.6 4.57082 -5.82492
Cd 0 3 -6.79574
Cd 0 1.8 -6.79574
Cd 0 0.6 -6.79574
Cd 0 -0.6 -6.79574
Cd 0 -1.8 -6.79574
Cd 0 -3 -6.79574
Cd 0 -3 6.79574
Cd 0 -1.8 6.79574
Cd 0 -0.6 6.79574
Cd 0 0.6 6.79574
Cd 0 1.8 6.79574
Cd 0 3 6.79574
Au 6.42492 0.97082 2.4
Au 6.42492 0.97082 1.2
Au 6.0541 1.94164 1.8
Au 6.42492 0.97082 0
Au 6.0541 1.94164 0.6
Au 5.68328 2.91246 1.2
Au 6.42492 0.97082 -1.2
Au 6.0541 1.94164 -0.6
Au 5.68328 2.91246 0
Au 5.31246 3.88328 0.6
Au 6.42492 0.97082 -2.4
Au 6.0541 1.94164 -1.8
Au 5.68328 2.91246 -1.2
Au 5.31246 3.88328 -0.6
Au 4.94164 4.8541 0
Au 5.4541 1.57082 3.97082
Au 5.08328 2.54164 3.37082
Au 4.48328 2.17082 4.34164
Au 4.71246 3.51246 2.77082
Au 4.11246 3.14164 3.74164
Au 3.51246 2.77082 4.71246
Au 4.34164 4.48328 2.17082
Au 3.74164 4.11246 3.14164
Au 3.14164 3.74164 4.11246
Au 2.54164 3.37082 5.08328
Au 3.97082 5.4541 1.57082
Au 3.37082 5.08328 2.54164
Au 2.77082 4.71246 3.51246
Au 2.17082 4.34164 4.48328
Au 1.57082 3.97082 5.4541
Au 4.8541 0 4.94164
Au 3.88328 0.6 5.31246
Au 3.88328 -0.6 5.31246
Au 2.91246 1.2 5.68328
Au 2.91246 0 5.68328
Au 2.91246 -1.2 5.68328
Au 1.94164 1.8 6.0541
Au 1.94164 0.6 6.0541
Au 1.94164 -0.6 6.0541
Au 1.94164 -1.8 6.0541
Au 0.97082 2.4 6.42492
Au 0.97082 1.2 6.42492
Au 0.97082 0 6.42492
Au 0.97082 -1.2 6.42492
Au 0.97082 -2.4 6.42492
Au 5.4541 -1.57082 3.97082
Au 4.48328 -2.17082 4.34164
Au 5.08328 -2.54164 3.37082
Au 3.51246 -2.77082 4.71246
Au 4.11246 -3.14164 3.74164
Au 4.71246 -3.51246 2.77082
Au 2.54164 -3.37082 5.08328
Au 3.14164 -3.74164 4.11246
Au 3.74164 -4.11246 3.14164
Au 4.34164 -4.48328 2.17082
Au 1.57082 -3.97082 5.4541
Au 2.17082 -4.34164 4.48328
Au 2.77082 -4.71246 3.51246
Au 3.37082 -5.08328 2.54164
Au 3.97082 -5.4541 1.57082
Au 6.42492 -0.97082 2.4
Au 6.42492 -0.97082 1.2
Au 6.0541 -1.94164 1.8
Au 6.42492 -0.97082 0
Au 6.0541 -1.94164 0.6
Au 5.68328 -2.91246 1.2
Au 6.42492 -0.97082 -1.2
Au 6.0541 -1.94164 -0.6
Au 5.68328 -2.91246 0
Au 5.31246 -3.88328 0.6
Au 6.42492 -0.97082 -2.4
Au 6.0541 -1.94164 -1.8
Au 5.68328 -2.91246 -1.2
Au 5.31246 -3.88328 -0.6
Au 4.94164 -4.8541 0
Au -5.4541 1.57082 -3.97082
Au -5.08328 2.54164 -3.37082
Au -4.48328 2.17082 -4.34164
Au -4.71246 3.51246 -2.77082
Au -4.11246 3.14164 -3.74164
Au -3.51246 2.77082 -4.71246
Au -4.34164 4.48328 -2.17082
Au -3.74164 4.11246 -3.14164
Au -3.14164 3.74164 -4.11246
Au -2.54164 3.37082 -5.08328
Au -3.97082 5.4541 -1.57082
Au -3.37082 5.08328 -2.54164
Au -2.77082 4.71246 -3.51246
Au -2.17082 4.34164 -4.48328
Au -1.57082 3.97082 -5.4541
Au -6.42492 0.97082 -2.4
Au -6.0541 1.94164 -1.8
Au -6.42492 0.97082 -1.2
Au -5.68328 2.91246 -1.2
Au -6.0541 1.94164 -0.6
Au -6.42492 0.97082 0
Au -5.31246 3.88328 -0.6
Au -5.68328 2.91246 0
Au -6.0541 1.94164 0.6
Au -6.42492 0.97082 1.2
Au -4.94164 4.8541 0
Au -5.31246 3.88328 0.6
Au -5.68328 2.91246 1.2
Au -6.0541 1.94164 1.8
Au -6.42492 0.97082 2.4
Au -6.42492 -0.97082 -2.4
Au -6.42492 -0.97082 -1.2
Au -6.0541 -1.94164 -1.8
Au -6.42492 -0.97082 0
Au -6.0541 -1.94164 -0.6
Au -5.68328 -2.91246 -1.2
Au -6.42492 -0.97082 1.2
Au -6.0541 -1.94164 0.6
Au -5.68328 -2.91246 0
Au -5.31246 -3.88328 -0.6
Au -6.42492 -0.97082 2.4
Au -6.0541 -1.94164 1.8
Au -5.68328 -2.91246 1.2
Au -5.31246 -3.88328 0.6
Au -4.94164 -4.8541 0
Au -5.4541 -1.57082 -3.97082
Au -4.48328 -2.17082 -4.34164
Au -5.08328 -2.54164 -3.37082
Au -3.51246 -2.77082 -4.71246
Au -4.11246 -3.14164 -3.74164
Au -4.71246 -3.51246 -2.77082
Au -2.54164 -3.37082 -5.08328
Au -3.14164 -3.74164 -4.11246
Au -3.74164 -4.11246 -3.14164
Au -4.34164 -4.48328 -2.17082
Au -1.57082 -3.97082 -5.4541
Au -2.17082 -4.34164 -4.48328
Au -2.77082 -4.71246 -3.51246
Au -3.37082 -5.08328 -2.54164
Au -3.97082 -5.4541 -1.57082
Au -4.8541 0 -4.94164
Au -3.88328 0.6 -5.31246
Au -3.88328 -0.6 -5.31246
Au -2.91246 1.2 -5.68328
Au -2.91246 0 -5.68328
Au -2.91246 -1.2 -5.68328
Au -1.94164 1.8 -6.0541
Au -1.94164 0.6 -6.0541
Au -1.94164 -0.6 -6.0541
Au -1.94164 -1.8 -6.0541
Au -0.97082 2.4 -6.42492
Au -0.97082 1.2 -6.42492
Au -0.97082 0 -6.42492
Au -0.97082 -1.2 -6.42492
Au -0.97082 -2.4 -6.42492
Au 5.4541 1.57082 -3.97082
Au 5.08328 2.54164 -3.37082
Au 4.48328 2.17082 -4.34164
Au 4.71246 3.51246 -2.77082
Au 4.11246 3.14164 -3.74164
Au 3.51246 2.77082 -4.71246
Au 4.34164 4.48328 -2.17082
Au 3.74164 4.11246 -3.14164
Au 3.14164 3.74164 -4.11246
Au 2.54164 3.37082 -5.08328
Au 3.97082 5.4541 -1.57082
Au 3.37082 5.08328 -2.54164
Au 2.77082 4.71246 -3.51246
Au 2.17082 4.34164 -4.48328
Au 1.57082 3.97082 -5.4541
Au 4.8541 0 -4.94164
Au 3.88328 0.6 -5.31246
Au 3.88328 -0.6 -5.31246
Au 2.91246 1.2 -5.68328
Au 2.91246 0 -5.68328
Au 2.91246 -1.2 -5.68328
Au 1.94164 1.8 -6.0541
Au 1.94164 0.6 -6.0541
Au 1.94164 -0.6 -6.0541
Au 1.94164 -1.8 -6.0541
Au 0.97082 2.4 -6.42492
Au 0.97082 1.2 -6.42492
Au 0.97082 0 -6.42492
Au 0.97082 -1.2 -6.42492
Au 0.97082 -2.4 -6.42492
Au 5.4541 -1.57082 -3.97082
Au 5.08328 -2.54164 -3.37082
Au 4.48328 -2.17082 -4.34164
Au 4.71246 -3.51246 -2.77082
Au 4.11246 -3.14164 -3.74164
Au 3.51246 -2.77082 -4.71246
Au 4.34164 -4.48328 -2.17082
Au 3.74164 -4.11246 -3.14164
Au 3.14164 -3.74164 -4.11246
Au 2.54164 -3.37082 -5.08328
Au 3.97082 -5.4541 -1.57082
Au 3.37082 -5.08328 -2.54164
Au 2.77082 -4.71246 -3.51246
Au 2.17082 -4.34164 -4.48328
Au 1.57082 -3.97082 -5.4541
Au -5.4541 -1.57082 3.97082
Au -4.48328 -2.17082 4.34164
Au -5.08328 -2.54164 3.37082
Au -3.51246 -2.77082 4.71246
Au -4.11246 -3.14164 3.74164
Au -4.71246 -3.51246 2.77082
Au -2.54164 -3.37082 5.08328
Au -3.14164 -3.74164 4.11246
Au -3.74164 -4.11246 3.14164
Au -4.34164 -4.48328 2.17082
Au -1.57082 -3.97082 5.4541
Au -2.17082 -4.34164 4.48328
Au -2.77082 -4.71246 3.51246
Au -3.37082 -5.08328 2.54164
Au -3.97082 -5.4541 1.57082
Au -4.8541 0 4.94164
Au -3.88328 0.6 5.31246
Au -3.88328 -0.6 5.31246
Au -2.91246 1.2 5.68328
Au -2.91246 0 5.68328
Au -2.91246 -1.2 5.68328
Au -1.94164 1.8 6.0541
Au -1.94164 0.6 6.0541
Au -1.94164 -0.6 6.0541
Au -1.94164 -1.8 6.0541
Au -0.97082 2.4 6.42492
Au -0.97082 1.2 6.42492
Au -0.97082 0 6.42492
Au -0.97082 -1.2 6.42492
Au -0.97082 -2.4 6.42492
Au -5.4541 1.57082 3.97082
Au -5.08328 2.54164 3.37082
Au -4.48328 2.17082 4.34164
Au -4.71246 3.51246 2.77082
Au -4.11246 3.14164 3.74164
Au -3.51246 2.77082 4.71246
Au -4.34164 4.48328 2.17082
Au -3.74164 4.11246 3.14164
Au -3.14164 3.74164 4.11246
Au -2.54164 3.37082 5.08328
Au -3.97082 5.4541 1.57082
Au -3.37082 5.08328 2.54164
Au -2.77082 4.71246 3.51246
Au -2.17082 4.34164 4.48328
Au -1.57082 3.97082 5.4541
Au 2.4 6.42492 -0.97082
Au 1.2 6.42492 -0.97082
Au 1.8 6.0541 -1.94164
Au 0 6.42492 -0.97082
Au 0.6 6.0541 -1.94164
Au 1.2 5.68328 -2.91246
Au -1.2 6.42492 -0.97082
Au -0.6 6.0541 -1.94164
Au 0 5.68328 -2.91246
Au 0.6 5.31246 -3.88328
Au -2.4 6.42492 -0.97082
Au -1.8 6.0541 -1.94164
Au -1.2 5.68328 -2.91246
Au -0.6 5.31246 -3.88328
Au 0 4.94164 -4.8541
Au 2.4 6.42492 0.97082
Au 1.2 6.42492 0.97082
Au 1.8 6.0541 1.94164
Au 0 6.42492 0.97082
Au 0.6 6.0541 1.94164
Au 1.2 5.68328 2.91246
Au -1.2 6.42492 0.97082
Au -0.6 6.0541 1.94164
Au 0 5.68328 2.91246
Au 0.6 5.31246 3.88328
Au -2.4 6.42492 0.97082
Au -1.8 6.0541 1.94164
Au -1.2 5.68328 2.91246
Au -0.6 5.31246 3.88328
Au 0 4.94164 4.8541
Au -2.4 -6.42492 0.97082
Au -1.8 -6.0541 1.94164
Au -1.2 -6.42492 0.97082
Au -1.2 -5.68328 2.91246
Au -0.6 -6.0541 1.94164
Au 0 -6.42492 0.97082
Au -0.6 -5.31246 3.88328
Au 0 -5.68328 2.91246
Au 0.6 -6.0541 1.94164
Au 1.2 -6.42492 0.97082
Au 0 -4.94164 4.8541
Au 0.6 -5.31246 3.88328
Au 1.2 -5.68328 2.91246
Au 1.8 -6.0541 1.94164
Au 2.4 -6.42492 0.97082
Au -2.4 -6.42492 -0.97082
Au -1.2 -6.42492 -0.97082
Au -1.8 -6.0541 -1.94164
Au 0 -6.42492 -0.97082
Au -0.6 -6.0541 -1.94164
Au -1.2 -5.68328 -2.91246
Au 1.2 -6.42492 -0.97082
Au 0.6 -6.0541 -1.94164
Au 0 -5.68328 -2.91246
Au -0.6 -5.31246 -3.88328
Au 2.4 -6.42492 -0.97082
Au 1.8 -6.0541 -1.94164
Au 1.2 -5.68328 -2.91246
Au 0.6 -5.31246 -3.88328
Au 0 -4.94164 -4.8541
